data_created_by_vaspkit_code
_audit_creation_date          Wed Mar  5 09:43:46 2025
_pd_phase_name                     'CIF files'
_cell_length_a                    10.68887020
_cell_length_b                    10.68887020
_cell_length_c                    24.72742597
_cell_angle_alpha                     90.0000
_cell_angle_beta                      90.0000
_cell_angle_gamma                     60.0000
_symmetry_space_group_name_H-M           'P 1'
_symmetry_Int_Tables_number            1
loop_
_symmetry_equiv_pos_as_xyz
    'x, y, z'
loop_
   _atom_site_label
   _atom_site_occupancy
   _atom_site_fract_x
   _atom_site_fract_y
   _atom_site_fract_z
   _atom_site_thermal_displace_type
   _atom_site_U_iso_or_equiv
   _atom_site_type_symbol
   Cu001  1.0    0.250000    0.000000    0.040441  Uiso   1.00  Cu
   Cu002  1.0    0.250000    0.500000    0.040441  Uiso   1.00  Cu
   Cu003  1.0    0.750000    0.000000    0.040441  Uiso   1.00  Cu
   Cu004  1.0    0.750000    0.500000    0.040441  Uiso   1.00  Cu
   Cu005  1.0    0.000000    0.250000    0.040441  Uiso   1.00  Cu
   Cu006  1.0    0.000000    0.750000    0.040441  Uiso   1.00  Cu
   Cu007  1.0    0.500000    0.250000    0.040441  Uiso   1.00  Cu
   Cu008  1.0    0.500000    0.750000    0.040441  Uiso   1.00  Cu
   Cu009  1.0    0.250000    0.250000    0.040441  Uiso   1.00  Cu
   Cu010  1.0    0.250000    0.750000    0.040441  Uiso   1.00  Cu
   Cu011  1.0    0.750000    0.250000    0.040441  Uiso   1.00  Cu
   Cu012  1.0    0.750000    0.750000    0.040441  Uiso   1.00  Cu
   Cu013  1.0    0.083333    0.833333    0.128677  Uiso   1.00  Cu
   Cu014  1.0    0.083333    0.333333    0.128677  Uiso   1.00  Cu
   Cu015  1.0    0.583333    0.833333    0.128677  Uiso   1.00  Cu
   Cu016  1.0    0.583333    0.333333    0.128677  Uiso   1.00  Cu
   Cu017  1.0    0.833333    0.083333    0.128677  Uiso   1.00  Cu
   Cu018  1.0    0.833333    0.583333    0.128677  Uiso   1.00  Cu
   Cu019  1.0    0.333333    0.083333    0.128677  Uiso   1.00  Cu
   Cu020  1.0    0.333333    0.583333    0.128677  Uiso   1.00  Cu
   Cu021  1.0    0.083333    0.083333    0.128677  Uiso   1.00  Cu
   Cu022  1.0    0.083333    0.583333    0.128677  Uiso   1.00  Cu
   Cu023  1.0    0.583333    0.083333    0.128677  Uiso   1.00  Cu
   Cu024  1.0    0.583333    0.583333    0.128677  Uiso   1.00  Cu
   Cu025  1.0    0.918123    0.663780    0.215345  Uiso   1.00  Cu
   Cu026  1.0    0.918123    0.163780    0.215345  Uiso   1.00  Cu
   Cu027  1.0    0.418123    0.663780    0.215345  Uiso   1.00  Cu
   Cu028  1.0    0.418123    0.163780    0.215345  Uiso   1.00  Cu
   Cu029  1.0    0.663780    0.918123    0.215345  Uiso   1.00  Cu
   Cu030  1.0    0.663780    0.418123    0.215345  Uiso   1.00  Cu
   Cu031  1.0    0.163780    0.918123    0.215345  Uiso   1.00  Cu
   Cu032  1.0    0.163780    0.418123    0.215345  Uiso   1.00  Cu
   Cu033  1.0    0.918111    0.918111    0.215341  Uiso   1.00  Cu
   Cu034  1.0    0.918111    0.418111    0.215341  Uiso   1.00  Cu
   Cu035  1.0    0.418111    0.918111    0.215341  Uiso   1.00  Cu
   Cu036  1.0    0.418111    0.418111    0.215341  Uiso   1.00  Cu
   Cu037  1.0    0.752772    0.494455    0.299436  Uiso   1.00  Cu
   Cu038  1.0    0.752772    0.994455    0.299436  Uiso   1.00  Cu
   Cu039  1.0    0.252772    0.494455    0.299436  Uiso   1.00  Cu
   Cu040  1.0    0.252772    0.994455    0.299436  Uiso   1.00  Cu
   Cu041  1.0    0.494455    0.752772    0.299436  Uiso   1.00  Cu
   Cu042  1.0    0.494455    0.252772    0.299436  Uiso   1.00  Cu
   Cu043  1.0    0.994455    0.752772    0.299436  Uiso   1.00  Cu
   Cu044  1.0    0.994455    0.252772    0.299436  Uiso   1.00  Cu
   Cu045  1.0    0.752784    0.752784    0.299447  Uiso   1.00  Cu
   Cu046  1.0    0.752784    0.252784    0.299447  Uiso   1.00  Cu
   Cu047  1.0    0.252784    0.752784    0.299447  Uiso   1.00  Cu
   Cu048  1.0    0.252784    0.252784    0.299447  Uiso   1.00  Cu
   Ag001  1.0    0.000000    0.000000    0.040441  Uiso   1.00  Ag
   Ag002  1.0    0.000000    0.500000    0.040441  Uiso   1.00  Ag
   Ag003  1.0    0.500000    0.000000    0.040441  Uiso   1.00  Ag
   Ag004  1.0    0.500000    0.500000    0.040441  Uiso   1.00  Ag
   Ag005  1.0    0.833333    0.833333    0.128677  Uiso   1.00  Ag
   Ag006  1.0    0.833333    0.333333    0.128677  Uiso   1.00  Ag
   Ag007  1.0    0.333333    0.833333    0.128677  Uiso   1.00  Ag
   Ag008  1.0    0.333333    0.333333    0.128677  Uiso   1.00  Ag
   Ag009  1.0    0.666655    0.666655    0.214762  Uiso   1.00  Ag
   Ag010  1.0    0.666655    0.166655    0.214762  Uiso   1.00  Ag
   Ag011  1.0    0.166655    0.666655    0.214762  Uiso   1.00  Ag
   Ag012  1.0    0.166655    0.166655    0.214762  Uiso   1.00  Ag
   Ag013  1.0    0.500006    0.500005    0.307313  Uiso   1.00  Ag
   Ag014  1.0    0.500006    0.000006    0.307312  Uiso   1.00  Ag
   Ag015  1.0    0.000006    0.500005    0.307312  Uiso   1.00  Ag
   Ag016  1.0    0.000006    0.000005    0.307313  Uiso   1.00  Ag
