data_created_by_vaspkit_code
_audit_creation_date          Wed Mar  5 09:43:46 2025
_pd_phase_name                     'CIF files'
_cell_length_a                    10.20489846
_cell_length_b                    10.20489846
_cell_length_c                    24.33226470
_cell_angle_alpha                     90.0000
_cell_angle_beta                      90.0000
_cell_angle_gamma                     60.0000
_symmetry_space_group_name_H-M           'P 1'
_symmetry_Int_Tables_number            1
loop_
_symmetry_equiv_pos_as_xyz
    'x, y, z'
loop_
   _atom_site_label
   _atom_site_occupancy
   _atom_site_fract_x
   _atom_site_fract_y
   _atom_site_fract_z
   _atom_site_thermal_displace_type
   _atom_site_U_iso_or_equiv
   _atom_site_type_symbol
   Cu001  1.0    0.083333    0.833333    0.126707  Uiso   1.00  Cu
   Cu002  1.0    0.083333    0.333333    0.126707  Uiso   1.00  Cu
   Cu003  1.0    0.583333    0.833333    0.126707  Uiso   1.00  Cu
   Cu004  1.0    0.583333    0.333333    0.126707  Uiso   1.00  Cu
   Cu005  1.0    0.000000    0.250000    0.041098  Uiso   1.00  Cu
   Cu006  1.0    0.000000    0.750000    0.041098  Uiso   1.00  Cu
   Cu007  1.0    0.500000    0.250000    0.041098  Uiso   1.00  Cu
   Cu008  1.0    0.500000    0.750000    0.041098  Uiso   1.00  Cu
   Cu009  1.0    0.083333    0.083333    0.126707  Uiso   1.00  Cu
   Cu010  1.0    0.083333    0.583333    0.126707  Uiso   1.00  Cu
   Cu011  1.0    0.583333    0.083333    0.126707  Uiso   1.00  Cu
   Cu012  1.0    0.583333    0.583333    0.126707  Uiso   1.00  Cu
   Cu013  1.0    0.916126    0.667370    0.211591  Uiso   1.00  Cu
   Cu014  1.0    0.916070    0.167394    0.211575  Uiso   1.00  Cu
   Cu015  1.0    0.416218    0.667214    0.211590  Uiso   1.00  Cu
   Cu016  1.0    0.416034    0.167454    0.211564  Uiso   1.00  Cu
   Cu017  1.0    0.833333    0.083333    0.126707  Uiso   1.00  Cu
   Cu018  1.0    0.833333    0.583333    0.126707  Uiso   1.00  Cu
   Cu019  1.0    0.333333    0.083333    0.126707  Uiso   1.00  Cu
   Cu020  1.0    0.333333    0.583333    0.126707  Uiso   1.00  Cu
   Cu021  1.0    0.916118    0.916947    0.211559  Uiso   1.00  Cu
   Cu022  1.0    0.916046    0.417208    0.211601  Uiso   1.00  Cu
   Cu023  1.0    0.416121    0.917045    0.211637  Uiso   1.00  Cu
   Cu024  1.0    0.416039    0.417086    0.211608  Uiso   1.00  Cu
   Cu025  1.0    0.749367    0.500786    0.296555  Uiso   1.00  Cu
   Cu026  1.0    0.749280    0.000990    0.296420  Uiso   1.00  Cu
   Cu027  1.0    0.249336    0.500791    0.296555  Uiso   1.00  Cu
   Cu028  1.0    0.249306    0.000914    0.296445  Uiso   1.00  Cu
   Cu029  1.0    0.666614    0.916928    0.211562  Uiso   1.00  Cu
   Cu030  1.0    0.666578    0.417053    0.211622  Uiso   1.00  Cu
   Cu031  1.0    0.166504    0.916903    0.211657  Uiso   1.00  Cu
   Cu032  1.0    0.166376    0.417147    0.211632  Uiso   1.00  Cu
   Cu033  1.0    0.749389    0.750483    0.296525  Uiso   1.00  Cu
   Cu034  1.0    0.749305    0.250401    0.296432  Uiso   1.00  Cu
   Cu035  1.0    0.249312    0.750321    0.296419  Uiso   1.00  Cu
   Cu036  1.0    0.249265    0.250524    0.296436  Uiso   1.00  Cu
   Cu037  1.0    0.750000    0.500000    0.041098  Uiso   1.00  Cu
   Cu038  1.0    0.750000    0.000000    0.041098  Uiso   1.00  Cu
   Cu039  1.0    0.250000    0.500000    0.041098  Uiso   1.00  Cu
   Cu040  1.0    0.250000    0.000000    0.041098  Uiso   1.00  Cu
   Cu041  1.0    0.499860    0.750362    0.296449  Uiso   1.00  Cu
   Cu042  1.0    0.499849    0.250415    0.296453  Uiso   1.00  Cu
   Cu043  1.0    0.999783    0.750381    0.296496  Uiso   1.00  Cu
   Cu044  1.0    0.999714    0.250483    0.296466  Uiso   1.00  Cu
   Cu045  1.0    0.750000    0.750000    0.041098  Uiso   1.00  Cu
   Cu046  1.0    0.750000    0.250000    0.041098  Uiso   1.00  Cu
   Cu047  1.0    0.250000    0.750000    0.041098  Uiso   1.00  Cu
   Cu048  1.0    0.250000    0.250000    0.041098  Uiso   1.00  Cu
   Co001  1.0    0.000000    0.000000    0.041098  Uiso   1.00  Co
   Co002  1.0    0.000000    0.500000    0.041098  Uiso   1.00  Co
   Co003  1.0    0.500000    0.000000    0.041098  Uiso   1.00  Co
   Co004  1.0    0.500000    0.500000    0.041098  Uiso   1.00  Co
   Co005  1.0    0.833333    0.833333    0.126707  Uiso   1.00  Co
   Co006  1.0    0.833333    0.333333    0.126707  Uiso   1.00  Co
   Co007  1.0    0.333333    0.833333    0.126707  Uiso   1.00  Co
   Co008  1.0    0.333333    0.333333    0.126707  Uiso   1.00  Co
   Co009  1.0    0.666337    0.667174    0.212070  Uiso   1.00  Co
   Co010  1.0    0.666204    0.167072    0.212018  Uiso   1.00  Co
   Co011  1.0    0.166101    0.667186    0.212037  Uiso   1.00  Co
   Co012  1.0    0.166276    0.167184    0.212061  Uiso   1.00  Co
   Co013  1.0    0.499383    0.500707    0.295300  Uiso   1.00  Co
   Co014  1.0    0.499505    0.000732    0.295269  Uiso   1.00  Co
   Co015  1.0    0.999293    0.500885    0.295299  Uiso   1.00  Co
   Co016  1.0    0.999304    0.000704    0.295234  Uiso   1.00  Co
