data_created_by_vaspkit_code
_audit_creation_date          Wed Mar  5 09:43:47 2025
_pd_phase_name                     'CIF files'
_cell_length_a                    10.55922285
_cell_length_b                    10.55922285
_cell_length_c                    24.62156935
_cell_angle_alpha                     90.0000
_cell_angle_beta                      90.0000
_cell_angle_gamma                     60.0000
_symmetry_space_group_name_H-M           'P 1'
_symmetry_Int_Tables_number            1
loop_
_symmetry_equiv_pos_as_xyz
    'x, y, z'
loop_
   _atom_site_label
   _atom_site_occupancy
   _atom_site_fract_x
   _atom_site_fract_y
   _atom_site_fract_z
   _atom_site_thermal_displace_type
   _atom_site_U_iso_or_equiv
   _atom_site_type_symbol
   Cu001  1.0    0.250000    0.000000    0.040615  Uiso   1.00  Cu
   Cu002  1.0    0.250000    0.500000    0.040615  Uiso   1.00  Cu
   Cu003  1.0    0.750000    0.000000    0.040615  Uiso   1.00  Cu
   Cu004  1.0    0.750000    0.500000    0.040615  Uiso   1.00  Cu
   Cu005  1.0    0.000000    0.250000    0.040615  Uiso   1.00  Cu
   Cu006  1.0    0.000000    0.750000    0.040615  Uiso   1.00  Cu
   Cu007  1.0    0.500000    0.250000    0.040615  Uiso   1.00  Cu
   Cu008  1.0    0.500000    0.750000    0.040615  Uiso   1.00  Cu
   Cu009  1.0    0.250000    0.250000    0.040615  Uiso   1.00  Cu
   Cu010  1.0    0.250000    0.750000    0.040615  Uiso   1.00  Cu
   Cu011  1.0    0.750000    0.250000    0.040615  Uiso   1.00  Cu
   Cu012  1.0    0.750000    0.750000    0.040615  Uiso   1.00  Cu
   Cu013  1.0    0.083333    0.833333    0.128156  Uiso   1.00  Cu
   Cu014  1.0    0.083333    0.333333    0.128156  Uiso   1.00  Cu
   Cu015  1.0    0.583333    0.833333    0.128156  Uiso   1.00  Cu
   Cu016  1.0    0.583333    0.333333    0.128156  Uiso   1.00  Cu
   Cu017  1.0    0.833333    0.083333    0.128156  Uiso   1.00  Cu
   Cu018  1.0    0.833333    0.583333    0.128156  Uiso   1.00  Cu
   Cu019  1.0    0.333333    0.083333    0.128156  Uiso   1.00  Cu
   Cu020  1.0    0.333333    0.583333    0.128156  Uiso   1.00  Cu
   Cu021  1.0    0.083333    0.083333    0.128156  Uiso   1.00  Cu
   Cu022  1.0    0.083333    0.583333    0.128156  Uiso   1.00  Cu
   Cu023  1.0    0.583333    0.083333    0.128156  Uiso   1.00  Cu
   Cu024  1.0    0.583333    0.583333    0.128156  Uiso   1.00  Cu
   Cu025  1.0    0.917564    0.664871    0.215324  Uiso   1.00  Cu
   Cu026  1.0    0.917564    0.164871    0.215324  Uiso   1.00  Cu
   Cu027  1.0    0.417564    0.664871    0.215324  Uiso   1.00  Cu
   Cu028  1.0    0.417564    0.164871    0.215324  Uiso   1.00  Cu
   Cu029  1.0    0.664871    0.917564    0.215324  Uiso   1.00  Cu
   Cu030  1.0    0.664871    0.417564    0.215324  Uiso   1.00  Cu
   Cu031  1.0    0.164871    0.917564    0.215324  Uiso   1.00  Cu
   Cu032  1.0    0.164871    0.417564    0.215324  Uiso   1.00  Cu
   Cu033  1.0    0.917566    0.917566    0.215323  Uiso   1.00  Cu
   Cu034  1.0    0.917566    0.417566    0.215323  Uiso   1.00  Cu
   Cu035  1.0    0.417566    0.917566    0.215324  Uiso   1.00  Cu
   Cu036  1.0    0.417566    0.417566    0.215323  Uiso   1.00  Cu
   Cu037  1.0    0.750708    0.498583    0.301244  Uiso   1.00  Cu
   Cu038  1.0    0.750708    0.998583    0.301244  Uiso   1.00  Cu
   Cu039  1.0    0.250707    0.498583    0.301243  Uiso   1.00  Cu
   Cu040  1.0    0.250708    0.998583    0.301243  Uiso   1.00  Cu
   Cu041  1.0    0.498583    0.750708    0.301243  Uiso   1.00  Cu
   Cu042  1.0    0.498583    0.250708    0.301244  Uiso   1.00  Cu
   Cu043  1.0    0.998584    0.750707    0.301243  Uiso   1.00  Cu
   Cu044  1.0    0.998583    0.250708    0.301244  Uiso   1.00  Cu
   Cu045  1.0    0.750711    0.750711    0.301244  Uiso   1.00  Cu
   Cu046  1.0    0.750711    0.250711    0.301245  Uiso   1.00  Cu
   Cu047  1.0    0.250711    0.750711    0.301244  Uiso   1.00  Cu
   Cu048  1.0    0.250711    0.250711    0.301244  Uiso   1.00  Cu
   Ge001  1.0    0.000000    0.000000    0.040615  Uiso   1.00  Ge
   Ge002  1.0    0.000000    0.500000    0.040615  Uiso   1.00  Ge
   Ge003  1.0    0.500000    0.000000    0.040615  Uiso   1.00  Ge
   Ge004  1.0    0.500000    0.500000    0.040615  Uiso   1.00  Ge
   Ge005  1.0    0.833333    0.833333    0.128156  Uiso   1.00  Ge
   Ge006  1.0    0.833333    0.333333    0.128156  Uiso   1.00  Ge
   Ge007  1.0    0.333333    0.833333    0.128156  Uiso   1.00  Ge
   Ge008  1.0    0.333333    0.333333    0.128156  Uiso   1.00  Ge
   Ge009  1.0    0.666668    0.666668    0.215768  Uiso   1.00  Ge
   Ge010  1.0    0.666669    0.166668    0.215768  Uiso   1.00  Ge
   Ge011  1.0    0.166669    0.666669    0.215767  Uiso   1.00  Ge
   Ge012  1.0    0.166668    0.166668    0.215768  Uiso   1.00  Ge
   Ge013  1.0    0.500000    0.500000    0.307682  Uiso   1.00  Ge
   Ge014  1.0    0.500000    0.000000    0.307682  Uiso   1.00  Ge
   Ge015  1.0    0.000000    0.500000    0.307682  Uiso   1.00  Ge
   Ge016  1.0    0.000000    0.000000    0.307681  Uiso   1.00  Ge
