data_created_by_vaspkit_code
_audit_creation_date          Wed Mar  5 09:43:47 2025
_pd_phase_name                     'CIF files'
_cell_length_a                    10.53728890
_cell_length_b                    10.53728890
_cell_length_c                    24.60366036
_cell_angle_alpha                     90.0000
_cell_angle_beta                      90.0000
_cell_angle_gamma                     60.0000
_symmetry_space_group_name_H-M           'P 1'
_symmetry_Int_Tables_number            1
loop_
_symmetry_equiv_pos_as_xyz
    'x, y, z'
loop_
   _atom_site_label
   _atom_site_occupancy
   _atom_site_fract_x
   _atom_site_fract_y
   _atom_site_fract_z
   _atom_site_thermal_displace_type
   _atom_site_U_iso_or_equiv
   _atom_site_type_symbol
   Pd001  1.0    0.000000    0.000000    0.040644  Uiso   1.00  Pd
   Pd002  1.0    0.000000    0.500000    0.040644  Uiso   1.00  Pd
   Pd003  1.0    0.500000    0.000000    0.040644  Uiso   1.00  Pd
   Pd004  1.0    0.500000    0.500000    0.040644  Uiso   1.00  Pd
   Pd005  1.0    0.833333    0.833333    0.128067  Uiso   1.00  Pd
   Pd006  1.0    0.833333    0.333333    0.128067  Uiso   1.00  Pd
   Pd007  1.0    0.333333    0.833333    0.128067  Uiso   1.00  Pd
   Pd008  1.0    0.333333    0.333333    0.128067  Uiso   1.00  Pd
   Pd009  1.0    0.666245    0.667511    0.214879  Uiso   1.00  Pd
   Pd010  1.0    0.666245    0.167512    0.214879  Uiso   1.00  Pd
   Pd011  1.0    0.166245    0.667511    0.214879  Uiso   1.00  Pd
   Pd012  1.0    0.166245    0.167512    0.214879  Uiso   1.00  Pd
   Pd013  1.0    0.499781    0.500423    0.301222  Uiso   1.00  Pd
   Pd014  1.0    0.499780    0.000423    0.301222  Uiso   1.00  Pd
   Pd015  1.0    0.999781    0.500423    0.301222  Uiso   1.00  Pd
   Pd016  1.0    0.999781    0.000424    0.301222  Uiso   1.00  Pd
   Cu001  1.0    0.083333    0.833333    0.128067  Uiso   1.00  Cu
   Cu002  1.0    0.083333    0.333333    0.128067  Uiso   1.00  Cu
   Cu003  1.0    0.583333    0.833333    0.128067  Uiso   1.00  Cu
   Cu004  1.0    0.583333    0.333333    0.128067  Uiso   1.00  Cu
   Cu005  1.0    0.000000    0.250000    0.040644  Uiso   1.00  Cu
   Cu006  1.0    0.000000    0.750000    0.040644  Uiso   1.00  Cu
   Cu007  1.0    0.500000    0.250000    0.040644  Uiso   1.00  Cu
   Cu008  1.0    0.500000    0.750000    0.040644  Uiso   1.00  Cu
   Cu009  1.0    0.250000    0.250000    0.040644  Uiso   1.00  Cu
   Cu010  1.0    0.250000    0.750000    0.040644  Uiso   1.00  Cu
   Cu011  1.0    0.750000    0.250000    0.040644  Uiso   1.00  Cu
   Cu012  1.0    0.750000    0.750000    0.040644  Uiso   1.00  Cu
   Cu013  1.0    0.916253    0.667496    0.214968  Uiso   1.00  Cu
   Cu014  1.0    0.916253    0.167496    0.214968  Uiso   1.00  Cu
   Cu015  1.0    0.416253    0.667496    0.214968  Uiso   1.00  Cu
   Cu016  1.0    0.416253    0.167496    0.214968  Uiso   1.00  Cu
   Cu017  1.0    0.833333    0.083333    0.128067  Uiso   1.00  Cu
   Cu018  1.0    0.833333    0.583333    0.128067  Uiso   1.00  Cu
   Cu019  1.0    0.333333    0.083333    0.128067  Uiso   1.00  Cu
   Cu020  1.0    0.333333    0.583333    0.128067  Uiso   1.00  Cu
   Cu021  1.0    0.083333    0.083333    0.128067  Uiso   1.00  Cu
   Cu022  1.0    0.083333    0.583333    0.128067  Uiso   1.00  Cu
   Cu023  1.0    0.583333    0.083333    0.128067  Uiso   1.00  Cu
   Cu024  1.0    0.583333    0.583333    0.128067  Uiso   1.00  Cu
   Cu025  1.0    0.751422    0.497144    0.299923  Uiso   1.00  Cu
   Cu026  1.0    0.751422    0.997144    0.299923  Uiso   1.00  Cu
   Cu027  1.0    0.251421    0.497145    0.299923  Uiso   1.00  Cu
   Cu028  1.0    0.251421    0.997145    0.299923  Uiso   1.00  Cu
   Cu029  1.0    0.665865    0.917621    0.214806  Uiso   1.00  Cu
   Cu030  1.0    0.665865    0.417621    0.214806  Uiso   1.00  Cu
   Cu031  1.0    0.165865    0.917621    0.214806  Uiso   1.00  Cu
   Cu032  1.0    0.165865    0.417621    0.214806  Uiso   1.00  Cu
   Cu033  1.0    0.916509    0.917620    0.214807  Uiso   1.00  Cu
   Cu034  1.0    0.916509    0.417620    0.214807  Uiso   1.00  Cu
   Cu035  1.0    0.416509    0.917620    0.214807  Uiso   1.00  Cu
   Cu036  1.0    0.416510    0.417620    0.214807  Uiso   1.00  Cu
   Cu037  1.0    0.750000    0.500000    0.040644  Uiso   1.00  Cu
   Cu038  1.0    0.750000    0.000000    0.040644  Uiso   1.00  Cu
   Cu039  1.0    0.250000    0.500000    0.040644  Uiso   1.00  Cu
   Cu040  1.0    0.250000    0.000000    0.040644  Uiso   1.00  Cu
   Cu041  1.0    0.496908    0.751865    0.300159  Uiso   1.00  Cu
   Cu042  1.0    0.496908    0.251865    0.300159  Uiso   1.00  Cu
   Cu043  1.0    0.996908    0.751865    0.300159  Uiso   1.00  Cu
   Cu044  1.0    0.996908    0.251865    0.300159  Uiso   1.00  Cu
   Cu045  1.0    0.751224    0.751871    0.300158  Uiso   1.00  Cu
   Cu046  1.0    0.751224    0.251871    0.300158  Uiso   1.00  Cu
   Cu047  1.0    0.251224    0.751871    0.300158  Uiso   1.00  Cu
   Cu048  1.0    0.251224    0.251871    0.300158  Uiso   1.00  Cu
