data_created_by_vaspkit_code
_audit_creation_date          Wed Mar  5 09:43:47 2025
_pd_phase_name                     'CIF files'
_cell_length_a                    10.45291783
_cell_length_b                    10.45291783
_cell_length_c                    24.53477167
_cell_angle_alpha                     90.0000
_cell_angle_beta                      90.0000
_cell_angle_gamma                     60.0000
_symmetry_space_group_name_H-M           'P 1'
_symmetry_Int_Tables_number            1
loop_
_symmetry_equiv_pos_as_xyz
    'x, y, z'
loop_
   _atom_site_label
   _atom_site_occupancy
   _atom_site_fract_x
   _atom_site_fract_y
   _atom_site_fract_z
   _atom_site_thermal_displace_type
   _atom_site_U_iso_or_equiv
   _atom_site_type_symbol
   Cu001  1.0    0.250000    0.500000    0.040758  Uiso   1.00  Cu
   Cu002  1.0    0.250000    0.000000    0.040758  Uiso   1.00  Cu
   Cu003  1.0    0.750000    0.500000    0.040758  Uiso   1.00  Cu
   Cu004  1.0    0.750000    0.000000    0.040758  Uiso   1.00  Cu
   Cu005  1.0    0.000000    0.250000    0.040758  Uiso   1.00  Cu
   Cu006  1.0    0.000000    0.750000    0.040758  Uiso   1.00  Cu
   Cu007  1.0    0.500000    0.250000    0.040758  Uiso   1.00  Cu
   Cu008  1.0    0.500000    0.750000    0.040758  Uiso   1.00  Cu
   Cu009  1.0    0.250000    0.250000    0.040758  Uiso   1.00  Cu
   Cu010  1.0    0.250000    0.750000    0.040758  Uiso   1.00  Cu
   Cu011  1.0    0.750000    0.250000    0.040758  Uiso   1.00  Cu
   Cu012  1.0    0.750000    0.750000    0.040758  Uiso   1.00  Cu
   Cu013  1.0    0.083333    0.333333    0.127725  Uiso   1.00  Cu
   Cu014  1.0    0.083333    0.833333    0.127725  Uiso   1.00  Cu
   Cu015  1.0    0.583333    0.333333    0.127725  Uiso   1.00  Cu
   Cu016  1.0    0.583333    0.833333    0.127725  Uiso   1.00  Cu
   Cu017  1.0    0.833333    0.083333    0.127725  Uiso   1.00  Cu
   Cu018  1.0    0.833333    0.583333    0.127725  Uiso   1.00  Cu
   Cu019  1.0    0.333333    0.083333    0.127725  Uiso   1.00  Cu
   Cu020  1.0    0.333333    0.583333    0.127725  Uiso   1.00  Cu
   Cu021  1.0    0.083333    0.083333    0.127725  Uiso   1.00  Cu
   Cu022  1.0    0.083333    0.583333    0.127725  Uiso   1.00  Cu
   Cu023  1.0    0.583333    0.083333    0.127725  Uiso   1.00  Cu
   Cu024  1.0    0.583333    0.583333    0.127725  Uiso   1.00  Cu
   Cu025  1.0    0.916472    0.167048    0.213712  Uiso   1.00  Cu
   Cu026  1.0    0.916473    0.667047    0.213712  Uiso   1.00  Cu
   Cu027  1.0    0.416473    0.167048    0.213712  Uiso   1.00  Cu
   Cu028  1.0    0.416472    0.667048    0.213713  Uiso   1.00  Cu
   Cu029  1.0    0.667048    0.916472    0.213712  Uiso   1.00  Cu
   Cu030  1.0    0.667048    0.416472    0.213713  Uiso   1.00  Cu
   Cu031  1.0    0.167047    0.916472    0.213712  Uiso   1.00  Cu
   Cu032  1.0    0.167047    0.416473    0.213712  Uiso   1.00  Cu
   Cu033  1.0    0.916472    0.916472    0.213715  Uiso   1.00  Cu
   Cu034  1.0    0.916474    0.416474    0.213715  Uiso   1.00  Cu
   Cu035  1.0    0.416474    0.916473    0.213715  Uiso   1.00  Cu
   Cu036  1.0    0.416472    0.416472    0.213716  Uiso   1.00  Cu
   Cu037  1.0    0.751076    0.997845    0.300035  Uiso   1.00  Cu
   Cu038  1.0    0.751075    0.497847    0.300035  Uiso   1.00  Cu
   Cu039  1.0    0.251075    0.997848    0.300036  Uiso   1.00  Cu
   Cu040  1.0    0.251076    0.497845    0.300035  Uiso   1.00  Cu
   Cu041  1.0    0.497848    0.751074    0.300036  Uiso   1.00  Cu
   Cu042  1.0    0.497846    0.251075    0.300036  Uiso   1.00  Cu
   Cu043  1.0    0.997845    0.751076    0.300035  Uiso   1.00  Cu
   Cu044  1.0    0.997847    0.251075    0.300035  Uiso   1.00  Cu
   Cu045  1.0    0.751078    0.751078    0.300032  Uiso   1.00  Cu
   Cu046  1.0    0.751077    0.251078    0.300032  Uiso   1.00  Cu
   Cu047  1.0    0.251078    0.751077    0.300032  Uiso   1.00  Cu
   Cu048  1.0    0.251077    0.251078    0.300032  Uiso   1.00  Cu
   Rh001  1.0    0.000000    0.000000    0.040758  Uiso   1.00  Rh
   Rh002  1.0    0.000000    0.500000    0.040758  Uiso   1.00  Rh
   Rh003  1.0    0.500000    0.000000    0.040758  Uiso   1.00  Rh
   Rh004  1.0    0.500000    0.500000    0.040758  Uiso   1.00  Rh
   Rh005  1.0    0.833333    0.833333    0.127725  Uiso   1.00  Rh
   Rh006  1.0    0.833333    0.333333    0.127725  Uiso   1.00  Rh
   Rh007  1.0    0.333333    0.833333    0.127725  Uiso   1.00  Rh
   Rh008  1.0    0.333333    0.333333    0.127725  Uiso   1.00  Rh
   Rh009  1.0    0.666669    0.666670    0.214360  Uiso   1.00  Rh
   Rh010  1.0    0.666667    0.166668    0.214360  Uiso   1.00  Rh
   Rh011  1.0    0.166668    0.666667    0.214360  Uiso   1.00  Rh
   Rh012  1.0    0.166669    0.166670    0.214360  Uiso   1.00  Rh
   Rh013  1.0    0.499997    0.499995    0.298030  Uiso   1.00  Rh
   Rh014  1.0    0.499994    0.000000    0.298027  Uiso   1.00  Rh
   Rh015  1.0    0.000000    0.499994    0.298027  Uiso   1.00  Rh
   Rh016  1.0    0.000000    0.000000    0.298029  Uiso   1.00  Rh
