data_created_by_vaspkit_code
_audit_creation_date          Wed Mar  5 09:43:47 2025
_pd_phase_name                     'CIF files'
_cell_length_a                    11.04603320
_cell_length_b                    11.04603320
_cell_length_c                    25.01904834
_cell_angle_alpha                     90.0000
_cell_angle_beta                      90.0000
_cell_angle_gamma                     60.0000
_symmetry_space_group_name_H-M           'P 1'
_symmetry_Int_Tables_number            1
loop_
_symmetry_equiv_pos_as_xyz
    'x, y, z'
loop_
   _atom_site_label
   _atom_site_occupancy
   _atom_site_fract_x
   _atom_site_fract_y
   _atom_site_fract_z
   _atom_site_thermal_displace_type
   _atom_site_U_iso_or_equiv
   _atom_site_type_symbol
   Cu001  1.0    0.083333    0.833333    0.130091  Uiso   1.00  Cu
   Cu002  1.0    0.083333    0.333333    0.130091  Uiso   1.00  Cu
   Cu003  1.0    0.583333    0.833333    0.130091  Uiso   1.00  Cu
   Cu004  1.0    0.583333    0.333333    0.130091  Uiso   1.00  Cu
   Cu005  1.0    0.833333    0.083333    0.130091  Uiso   1.00  Cu
   Cu006  1.0    0.833333    0.583333    0.130091  Uiso   1.00  Cu
   Cu007  1.0    0.333333    0.083333    0.130091  Uiso   1.00  Cu
   Cu008  1.0    0.333333    0.583333    0.130091  Uiso   1.00  Cu
   Cu009  1.0    0.250000    0.250000    0.039970  Uiso   1.00  Cu
   Cu010  1.0    0.250000    0.750000    0.039970  Uiso   1.00  Cu
   Cu011  1.0    0.750000    0.250000    0.039970  Uiso   1.00  Cu
   Cu012  1.0    0.750000    0.750000    0.039970  Uiso   1.00  Cu
   Cu013  1.0    0.921196    0.656729    0.221210  Uiso   1.00  Cu
   Cu014  1.0    0.921196    0.156729    0.221210  Uiso   1.00  Cu
   Cu015  1.0    0.421196    0.656729    0.221210  Uiso   1.00  Cu
   Cu016  1.0    0.421196    0.156729    0.221210  Uiso   1.00  Cu
   Cu017  1.0    0.656729    0.921196    0.221210  Uiso   1.00  Cu
   Cu018  1.0    0.656729    0.421196    0.221210  Uiso   1.00  Cu
   Cu019  1.0    0.156729    0.921196    0.221210  Uiso   1.00  Cu
   Cu020  1.0    0.156729    0.421196    0.221210  Uiso   1.00  Cu
   Cu021  1.0    0.083333    0.083333    0.130091  Uiso   1.00  Cu
   Cu022  1.0    0.083333    0.583333    0.130091  Uiso   1.00  Cu
   Cu023  1.0    0.583333    0.083333    0.130091  Uiso   1.00  Cu
   Cu024  1.0    0.583333    0.583333    0.130091  Uiso   1.00  Cu
   Cu025  1.0    0.754905    0.489409    0.304071  Uiso   1.00  Cu
   Cu026  1.0    0.754905    0.989409    0.304071  Uiso   1.00  Cu
   Cu027  1.0    0.254905    0.489409    0.304071  Uiso   1.00  Cu
   Cu028  1.0    0.254905    0.989409    0.304071  Uiso   1.00  Cu
   Cu029  1.0    0.489409    0.754905    0.304071  Uiso   1.00  Cu
   Cu030  1.0    0.489409    0.254905    0.304071  Uiso   1.00  Cu
   Cu031  1.0    0.989409    0.754905    0.304071  Uiso   1.00  Cu
   Cu032  1.0    0.989409    0.254905    0.304071  Uiso   1.00  Cu
   Cu033  1.0    0.920943    0.920943    0.221048  Uiso   1.00  Cu
   Cu034  1.0    0.920943    0.420943    0.221048  Uiso   1.00  Cu
   Cu035  1.0    0.420943    0.920943    0.221048  Uiso   1.00  Cu
   Cu036  1.0    0.420943    0.420943    0.221048  Uiso   1.00  Cu
   Cu037  1.0    0.500000    0.250000    0.039970  Uiso   1.00  Cu
   Cu038  1.0    0.500000    0.750000    0.039970  Uiso   1.00  Cu
   Cu039  1.0    0.000000    0.250000    0.039970  Uiso   1.00  Cu
   Cu040  1.0    0.000000    0.750000    0.039970  Uiso   1.00  Cu
   Cu041  1.0    0.250000    0.500000    0.039970  Uiso   1.00  Cu
   Cu042  1.0    0.250000    0.000000    0.039970  Uiso   1.00  Cu
   Cu043  1.0    0.750000    0.500000    0.039970  Uiso   1.00  Cu
   Cu044  1.0    0.750000    0.000000    0.039970  Uiso   1.00  Cu
   Cu045  1.0    0.754927    0.754927    0.304051  Uiso   1.00  Cu
   Cu046  1.0    0.754927    0.254927    0.304052  Uiso   1.00  Cu
   Cu047  1.0    0.254927    0.754927    0.304052  Uiso   1.00  Cu
   Cu048  1.0    0.254927    0.254927    0.304052  Uiso   1.00  Cu
   Sb001  1.0    0.000000    0.000000    0.039970  Uiso   1.00  Sb
   Sb002  1.0    0.000000    0.500000    0.039970  Uiso   1.00  Sb
   Sb003  1.0    0.500000    0.000000    0.039970  Uiso   1.00  Sb
   Sb004  1.0    0.500000    0.500000    0.039970  Uiso   1.00  Sb
   Sb005  1.0    0.833333    0.833333    0.130091  Uiso   1.00  Sb
   Sb006  1.0    0.833333    0.333333    0.130091  Uiso   1.00  Sb
   Sb007  1.0    0.333333    0.833333    0.130091  Uiso   1.00  Sb
   Sb008  1.0    0.333333    0.333333    0.130091  Uiso   1.00  Sb
   Sb009  1.0    0.666410    0.666410    0.219141  Uiso   1.00  Sb
   Sb010  1.0    0.666410    0.166410    0.219141  Uiso   1.00  Sb
   Sb011  1.0    0.166410    0.666410    0.219141  Uiso   1.00  Sb
   Sb012  1.0    0.166410    0.166410    0.219141  Uiso   1.00  Sb
   Sb013  1.0    0.499645    0.499645    0.320895  Uiso   1.00  Sb
   Sb014  1.0    0.499645    0.999645    0.320895  Uiso   1.00  Sb
   Sb015  1.0    0.999645    0.499645    0.320895  Uiso   1.00  Sb
   Sb016  1.0    0.999645    0.999645    0.320895  Uiso   1.00  Sb
