data_created_by_vaspkit_code
_audit_creation_date          Wed Mar  5 09:43:48 2025
_pd_phase_name                     'CIF files'
_cell_length_a                    10.99395442
_cell_length_b                    10.99395442
_cell_length_c                    24.97652619
_cell_angle_alpha                     90.0000
_cell_angle_beta                      90.0000
_cell_angle_gamma                     60.0000
_symmetry_space_group_name_H-M           'P 1'
_symmetry_Int_Tables_number            1
loop_
_symmetry_equiv_pos_as_xyz
    'x, y, z'
loop_
   _atom_site_label
   _atom_site_occupancy
   _atom_site_fract_x
   _atom_site_fract_y
   _atom_site_fract_z
   _atom_site_thermal_displace_type
   _atom_site_U_iso_or_equiv
   _atom_site_type_symbol
   Sn001  1.0    0.000000    0.000000    0.040038  Uiso   1.00  Sn
   Sn002  1.0    0.000000    0.500000    0.040038  Uiso   1.00  Sn
   Sn003  1.0    0.500000    0.000000    0.040038  Uiso   1.00  Sn
   Sn004  1.0    0.500000    0.500000    0.040038  Uiso   1.00  Sn
   Sn005  1.0    0.833333    0.833333    0.129887  Uiso   1.00  Sn
   Sn006  1.0    0.833333    0.333333    0.129887  Uiso   1.00  Sn
   Sn007  1.0    0.333333    0.833333    0.129887  Uiso   1.00  Sn
   Sn008  1.0    0.333333    0.333333    0.129887  Uiso   1.00  Sn
   Sn009  1.0    0.666758    0.666743    0.219392  Uiso   1.00  Sn
   Sn010  1.0    0.666756    0.166949    0.219348  Uiso   1.00  Sn
   Sn011  1.0    0.166828    0.666855    0.219365  Uiso   1.00  Sn
   Sn012  1.0    0.166812    0.166929    0.219327  Uiso   1.00  Sn
   Sn013  1.0    0.500401    0.500260    0.318932  Uiso   1.00  Sn
   Sn014  1.0    0.500442    0.000314    0.318280  Uiso   1.00  Sn
   Sn015  1.0    0.000278    0.500465    0.318057  Uiso   1.00  Sn
   Sn016  1.0    0.000447    0.000287    0.318116  Uiso   1.00  Sn
   Cu001  1.0    0.083333    0.833333    0.129887  Uiso   1.00  Cu
   Cu002  1.0    0.083333    0.333333    0.129887  Uiso   1.00  Cu
   Cu003  1.0    0.583333    0.833333    0.129887  Uiso   1.00  Cu
   Cu004  1.0    0.583333    0.333333    0.129887  Uiso   1.00  Cu
   Cu005  1.0    0.833333    0.083333    0.129887  Uiso   1.00  Cu
   Cu006  1.0    0.833333    0.583333    0.129887  Uiso   1.00  Cu
   Cu007  1.0    0.333333    0.083333    0.129887  Uiso   1.00  Cu
   Cu008  1.0    0.333333    0.583333    0.129887  Uiso   1.00  Cu
   Cu009  1.0    0.250000    0.250000    0.040038  Uiso   1.00  Cu
   Cu010  1.0    0.250000    0.750000    0.040038  Uiso   1.00  Cu
   Cu011  1.0    0.750000    0.250000    0.040038  Uiso   1.00  Cu
   Cu012  1.0    0.750000    0.750000    0.040038  Uiso   1.00  Cu
   Cu013  1.0    0.919566    0.661329    0.218705  Uiso   1.00  Cu
   Cu014  1.0    0.919650    0.161175    0.218773  Uiso   1.00  Cu
   Cu015  1.0    0.419737    0.660988    0.218798  Uiso   1.00  Cu
   Cu016  1.0    0.419598    0.161198    0.218763  Uiso   1.00  Cu
   Cu017  1.0    0.661202    0.919653    0.218768  Uiso   1.00  Cu
   Cu018  1.0    0.661033    0.419715    0.218756  Uiso   1.00  Cu
   Cu019  1.0    0.161303    0.919649    0.218797  Uiso   1.00  Cu
   Cu020  1.0    0.161248    0.419660    0.218709  Uiso   1.00  Cu
   Cu021  1.0    0.083333    0.083333    0.129887  Uiso   1.00  Cu
   Cu022  1.0    0.083333    0.583333    0.129887  Uiso   1.00  Cu
   Cu023  1.0    0.583333    0.083333    0.129887  Uiso   1.00  Cu
   Cu024  1.0    0.583333    0.583333    0.129887  Uiso   1.00  Cu
   Cu025  1.0    0.755197    0.490432    0.303702  Uiso   1.00  Cu
   Cu026  1.0    0.755058    0.990766    0.303674  Uiso   1.00  Cu
   Cu027  1.0    0.255361    0.490548    0.303661  Uiso   1.00  Cu
   Cu028  1.0    0.254889    0.990960    0.303636  Uiso   1.00  Cu
   Cu029  1.0    0.490431    0.755167    0.303691  Uiso   1.00  Cu
   Cu030  1.0    0.490582    0.255211    0.303655  Uiso   1.00  Cu
   Cu031  1.0    0.990711    0.755152    0.303672  Uiso   1.00  Cu
   Cu032  1.0    0.990967    0.255049    0.303665  Uiso   1.00  Cu
   Cu033  1.0    0.919715    0.919769    0.218619  Uiso   1.00  Cu
   Cu034  1.0    0.919664    0.419690    0.218611  Uiso   1.00  Cu
   Cu035  1.0    0.419803    0.919747    0.218631  Uiso   1.00  Cu
   Cu036  1.0    0.419753    0.419860    0.218732  Uiso   1.00  Cu
   Cu037  1.0    0.500000    0.250000    0.040038  Uiso   1.00  Cu
   Cu038  1.0    0.500000    0.750000    0.040038  Uiso   1.00  Cu
   Cu039  1.0    0.000000    0.250000    0.040038  Uiso   1.00  Cu
   Cu040  1.0    0.000000    0.750000    0.040038  Uiso   1.00  Cu
   Cu041  1.0    0.250000    0.500000    0.040038  Uiso   1.00  Cu
   Cu042  1.0    0.250000    0.000000    0.040038  Uiso   1.00  Cu
   Cu043  1.0    0.750000    0.500000    0.040038  Uiso   1.00  Cu
   Cu044  1.0    0.750000    0.000000    0.040038  Uiso   1.00  Cu
   Cu045  1.0    0.755115    0.755257    0.303655  Uiso   1.00  Cu
   Cu046  1.0    0.754953    0.255234    0.303622  Uiso   1.00  Cu
   Cu047  1.0    0.255152    0.755057    0.303615  Uiso   1.00  Cu
   Cu048  1.0    0.255090    0.255029    0.303702  Uiso   1.00  Cu
