data_created_by_vaspkit_code
_audit_creation_date          Wed Mar  5 09:43:48 2025
_pd_phase_name                     'CIF files'
_cell_length_a                    10.41867997
_cell_length_b                    10.41867997
_cell_length_c                    24.50681658
_cell_angle_alpha                     90.0000
_cell_angle_beta                      90.0000
_cell_angle_gamma                     60.0000
_symmetry_space_group_name_H-M           'P 1'
_symmetry_Int_Tables_number            1
loop_
_symmetry_equiv_pos_as_xyz
    'x, y, z'
loop_
   _atom_site_label
   _atom_site_occupancy
   _atom_site_fract_x
   _atom_site_fract_y
   _atom_site_fract_z
   _atom_site_thermal_displace_type
   _atom_site_U_iso_or_equiv
   _atom_site_type_symbol
   Zn001  1.0    0.000000    0.000000    0.040805  Uiso   1.00  Zn
   Zn002  1.0    0.000000    0.500000    0.040805  Uiso   1.00  Zn
   Zn003  1.0    0.500000    0.000000    0.040805  Uiso   1.00  Zn
   Zn004  1.0    0.500000    0.500000    0.040805  Uiso   1.00  Zn
   Zn005  1.0    0.833333    0.833333    0.127585  Uiso   1.00  Zn
   Zn006  1.0    0.833333    0.333333    0.127585  Uiso   1.00  Zn
   Zn007  1.0    0.333333    0.833333    0.127585  Uiso   1.00  Zn
   Zn008  1.0    0.333333    0.333333    0.127585  Uiso   1.00  Zn
   Zn009  1.0    0.666664    0.666664    0.213878  Uiso   1.00  Zn
   Zn010  1.0    0.666664    0.166664    0.213878  Uiso   1.00  Zn
   Zn011  1.0    0.166664    0.666664    0.213878  Uiso   1.00  Zn
   Zn012  1.0    0.166664    0.166664    0.213878  Uiso   1.00  Zn
   Zn013  1.0    0.499998    0.499998    0.305457  Uiso   1.00  Zn
   Zn014  1.0    0.499998    0.000000    0.305457  Uiso   1.00  Zn
   Zn015  1.0    0.000000    0.499998    0.305457  Uiso   1.00  Zn
   Zn016  1.0    0.000000    0.000000    0.305457  Uiso   1.00  Zn
   Cu001  1.0    0.250000    0.000000    0.040805  Uiso   1.00  Cu
   Cu002  1.0    0.250000    0.500000    0.040805  Uiso   1.00  Cu
   Cu003  1.0    0.750000    0.000000    0.040805  Uiso   1.00  Cu
   Cu004  1.0    0.750000    0.500000    0.040805  Uiso   1.00  Cu
   Cu005  1.0    0.000000    0.250000    0.040805  Uiso   1.00  Cu
   Cu006  1.0    0.000000    0.750000    0.040805  Uiso   1.00  Cu
   Cu007  1.0    0.500000    0.250000    0.040805  Uiso   1.00  Cu
   Cu008  1.0    0.500000    0.750000    0.040805  Uiso   1.00  Cu
   Cu009  1.0    0.250000    0.250000    0.040805  Uiso   1.00  Cu
   Cu010  1.0    0.250000    0.750000    0.040805  Uiso   1.00  Cu
   Cu011  1.0    0.750000    0.250000    0.040805  Uiso   1.00  Cu
   Cu012  1.0    0.750000    0.750000    0.040805  Uiso   1.00  Cu
   Cu013  1.0    0.083333    0.833333    0.127585  Uiso   1.00  Cu
   Cu014  1.0    0.083333    0.333333    0.127585  Uiso   1.00  Cu
   Cu015  1.0    0.583333    0.833333    0.127585  Uiso   1.00  Cu
   Cu016  1.0    0.583333    0.333333    0.127585  Uiso   1.00  Cu
   Cu017  1.0    0.833333    0.083333    0.127585  Uiso   1.00  Cu
   Cu018  1.0    0.833333    0.583333    0.127585  Uiso   1.00  Cu
   Cu019  1.0    0.333333    0.083333    0.127585  Uiso   1.00  Cu
   Cu020  1.0    0.333333    0.583333    0.127585  Uiso   1.00  Cu
   Cu021  1.0    0.083333    0.083333    0.127585  Uiso   1.00  Cu
   Cu022  1.0    0.083333    0.583333    0.127585  Uiso   1.00  Cu
   Cu023  1.0    0.583333    0.083333    0.127585  Uiso   1.00  Cu
   Cu024  1.0    0.583333    0.583333    0.127585  Uiso   1.00  Cu
   Cu025  1.0    0.916971    0.666055    0.213959  Uiso   1.00  Cu
   Cu026  1.0    0.916971    0.166055    0.213959  Uiso   1.00  Cu
   Cu027  1.0    0.416971    0.666055    0.213959  Uiso   1.00  Cu
   Cu028  1.0    0.416971    0.166055    0.213959  Uiso   1.00  Cu
   Cu029  1.0    0.666055    0.916971    0.213959  Uiso   1.00  Cu
   Cu030  1.0    0.666055    0.416971    0.213959  Uiso   1.00  Cu
   Cu031  1.0    0.166055    0.916971    0.213959  Uiso   1.00  Cu
   Cu032  1.0    0.166055    0.416971    0.213959  Uiso   1.00  Cu
   Cu033  1.0    0.916971    0.916971    0.213959  Uiso   1.00  Cu
   Cu034  1.0    0.916971    0.416971    0.213959  Uiso   1.00  Cu
   Cu035  1.0    0.416971    0.916971    0.213959  Uiso   1.00  Cu
   Cu036  1.0    0.416971    0.416971    0.213959  Uiso   1.00  Cu
   Cu037  1.0    0.750362    0.499269    0.298787  Uiso   1.00  Cu
   Cu038  1.0    0.750362    0.999269    0.298787  Uiso   1.00  Cu
   Cu039  1.0    0.250362    0.499269    0.298787  Uiso   1.00  Cu
   Cu040  1.0    0.250362    0.999269    0.298787  Uiso   1.00  Cu
   Cu041  1.0    0.499269    0.750362    0.298787  Uiso   1.00  Cu
   Cu042  1.0    0.499269    0.250362    0.298787  Uiso   1.00  Cu
   Cu043  1.0    0.999269    0.750362    0.298787  Uiso   1.00  Cu
   Cu044  1.0    0.999269    0.250362    0.298787  Uiso   1.00  Cu
   Cu045  1.0    0.750367    0.750367    0.298780  Uiso   1.00  Cu
   Cu046  1.0    0.750367    0.250367    0.298780  Uiso   1.00  Cu
   Cu047  1.0    0.250367    0.750367    0.298780  Uiso   1.00  Cu
   Cu048  1.0    0.250367    0.250367    0.298780  Uiso   1.00  Cu
