data_created_by_vaspkit_code
_audit_creation_date          Thu Mar 28 20:24:22 2024
_pd_phase_name                     'CIF files'
_cell_length_a                    10.43925508
_cell_length_b                    10.43925508
_cell_length_c                    24.52361608
_cell_angle_alpha                     90.0000
_cell_angle_beta                      90.0000
_cell_angle_gamma                     60.0000
_symmetry_space_group_name_H-M           'P 1'
_symmetry_Int_Tables_number            1
loop_
_symmetry_equiv_pos_as_xyz
    'x, y, z'
loop_
   _atom_site_label
   _atom_site_occupancy
   _atom_site_fract_x
   _atom_site_fract_y
   _atom_site_fract_z
   _atom_site_thermal_displace_type
   _atom_site_U_iso_or_equiv
   _atom_site_type_symbol
    C001  1.0    0.252720    0.494586    0.380588  Uiso   1.00   C
    O001  1.0    0.251065    0.497917    0.427186  Uiso   1.00   O
